LTspice 24.0.12 for Windows
Circuit: * C:\Users\davih\Documents\Freelance\doorbell-watcher\simulation\button_signal.asc
Start Time: Mon Nov 25 00:38:07 2024
solver = Normal
Maximum thread count: 16
tnom = 27
temp = 27
method = modified trap
Direct Newton iteration for .op point succeeded.
Total elapsed time: 0.174 seconds.

